Test_Network/condensed/network_18/Lines.txt
New Line.LINE1118 Bus1=1110 Bus2=1119 phases=3 Linecode=.04_PSC Length=3.901 Units=m
New Line.LINE1202 Bus1=1191 Bus2=1203 phases=3 Linecode=.04_PSC Length=3.5708 Units=m
New Line.LINE1213 Bus1=1199 Bus2=1214 phases=3 Linecode=.04_PSC Length=4.6735 Units=m
New Line.LINE1229 Bus1=1216 Bus2=1230 phases=3 Linecode=.04_PSC Length=4.1692 Units=m
New Line.LINE1269 Bus1=1254 Bus2=1270 phases=3 Linecode=.04_PSC Length=3.7482 Units=m
New Line.LINE1377 Bus1=1364 Bus2=1378 phases=3 Linecode=.0225_PSC Length=5.5781 Units=m
New Line.LINE1411 Bus1=1397 Bus2=1412 phases=3 Linecode=4c_120_SAC Length=11.8223 Units=m
New Line.LINE1442 Bus1=1425 Bus2=1443 phases=3 Linecode=4c_120_SAC Length=10.6987 Units=m
New Line.LINE1467 Bus1=1447 Bus2=1468 phases=3 Linecode=.0225_PSC Length=8.8381 Units=m
New Line.LINE1490 Bus1=1468 Bus2=1491 phases=3 Linecode=.0225_PSC Length=4.1514 Units=m
New Line.LINE1525 Bus1=1501 Bus2=1526 phases=3 Linecode=.04_PSC Length=4.1328 Units=m
New Line.LINE1560 Bus1=1535 Bus2=1561 phases=3 Linecode=4c_120_SAC Length=2.0746 Units=m
New Line.LINE1590 Bus1=1562 Bus2=1591 phases=3 Linecode=.0225_PSC Length=4.5543 Units=m
New Line.LINE1681 Bus1=1656 Bus2=1682 phases=3 Linecode=.0225_PSC Length=4.3968 Units=m
New Line.LINE1798 Bus1=1775 Bus2=1799 phases=3 Linecode=.04_PSC Length=4.8105 Units=m
New Line.LINE1820 Bus1=1795 Bus2=1821 phases=3 Linecode=.0225_PSC Length=3.4829 Units=m
New Line.LINE1826 Bus1=1802 Bus2=1827 phases=3 Linecode=4c_185_SAC Length=12.7797 Units=m
New Line.LINE1895 Bus1=1870 Bus2=1896 phases=3 Linecode=.04_PSC Length=5.4457 Units=m
New Line.LINE1953 Bus1=1931 Bus2=1954 phases=3 Linecode=.0225_PSC Length=2.989 Units=m
New Line.LINE1959 Bus1=1936 Bus2=1960 phases=3 Linecode=.04_PSC Length=5.5925 Units=m
New Line.LINE1965 Bus1=1941 Bus2=1966 phases=3 Linecode=.04_PSC Length=4.6884 Units=m
New Line.LINE1981 Bus1=1957 Bus2=1982 phases=3 Linecode=.04_PSC Length=4.2816 Units=m
New Line.LINE11088 Bus1=11068 Bus2=11089 phases=3 Linecode=.04_PSC Length=3.6783 Units=m
New Line.LINE11098 Bus1=11077 Bus2=11099 phases=3 Linecode=.04_PSC Length=4.0336 Units=m
New Line.LINE11104 Bus1=11083 Bus2=11105 phases=3 Linecode=.04_PSC Length=4.4765 Units=m
New Line.LINE11132 Bus1=11114 Bus2=11133 phases=3 Linecode=.04_PSC Length=3.7198 Units=m
New Line.LINE11173 Bus1=11156 Bus2=11174 phases=3 Linecode=.04_PSC Length=5.4228 Units=m
New Line.LINE11186 Bus1=11168 Bus2=11187 phases=3 Linecode=.04_PSC Length=3.7668 Units=m
New Line.LINE11256 Bus1=11242 Bus2=11257 phases=3 Linecode=.04_PSC Length=4.7418 Units=m
New Line.LINE11306 Bus1=11293 Bus2=11307 phases=3 Linecode=.04_PSC Length=4.7823 Units=m
New Line.LINE11310 Bus1=11296 Bus2=11311 phases=3 Linecode=.04_PSC Length=3.8439 Units=m
New Line.LINE11313 Bus1=11298 Bus2=11314 phases=3 Linecode=.04_PSC Length=4.5545 Units=m
New Line.LINE11328 Bus1=11318 Bus2=11329 phases=3 Linecode=.04_PSC Length=5.2267 Units=m
New Line.LINE1Cmpd_0 Bus1=1254 Bus2=1457 phases=3 Linecode=.0225_PSC Length=13.72072 Units=m
New Line.LINE1Cmpd_1 Bus1=1219 Bus2=1656 phases=3 Linecode=.0225_PSC Length=11.5527 Units=m
New Line.LINE1Cmpd_2 Bus1=11 Bus2=175 phases=3 Linecode=4c_300_SAC Length=150.015054 Units=m
New Line.LINE1Cmpd_3 Bus1=1775 Bus2=11058 phases=3 Linecode=.0225_PSC Length=10.518906 Units=m
New Line.LINE1Cmpd_4 Bus1=11318 Bus2=11408 phases=3 Linecode=.04_PSC Length=13.939627 Units=m
New Line.LINE1Cmpd_5 Bus1=1193 Bus2=1501 phases=3 Linecode=.04_PSC Length=10.435966 Units=m
New Line.LINE1Cmpd_6 Bus1=1493 Bus2=11077 phases=3 Linecode=.04_PSC Length=17.147649 Units=m
New Line.LINE1Cmpd_7 Bus1=175 Bus2=1397 phases=3 Linecode=4c_120_SAC Length=28.497156 Units=m
New Line.LINE1Cmpd_8 Bus1=1802 Bus2=11083 phases=3 Linecode=.0225_PSC Length=9.751221 Units=m
New Line.LINE1Cmpd_9 Bus1=1870 Bus2=11154 phases=3 Linecode=.04_PSC Length=12.494008 Units=m
New Line.LINE1Cmpd_10 Bus1=11296 Bus2=11394 phases=3 Linecode=.04_PSC Length=12.474535 Units=m
New Line.LINE1Cmpd_11 Bus1=1412 Bus2=1941 phases=3 Linecode=.04_PSC Length=22.566065 Units=m
New Line.LINE1Cmpd_12 Bus1=1493 Bus2=11156 phases=3 Linecode=.04_PSC Length=26.583901 Units=m
New Line.LINE1Cmpd_13 Bus1=11242 Bus2=11401 phases=3 Linecode=.04_PSC Length=13.95499 Units=m
New Line.LINE1Cmpd_14 Bus1=1561 Bus2=11293 phases=3 Linecode=.04_PSC Length=17.62999 Units=m
New Line.LINE1Cmpd_15 Bus1=1425 Bus2=1957 phases=3 Linecode=.04_PSC Length=10.699932 Units=m
New Line.LINE1Cmpd_16 Bus1=1931 Bus2=11229 phases=3 Linecode=.0225_PSC Length=13.03891 Units=m
New Line.LINE1Cmpd_17 Bus1=1412 Bus2=1870 phases=3 Linecode=.04_PSC Length=16.53393 Units=m
New Line.LINE1Cmpd_18 Bus1=1219 Bus2=1802 phases=3 Linecode=4c_185_SAC Length=29.07115 Units=m
New Line.LINE1Cmpd_19 Bus1=1443 Bus2=11318 phases=3 Linecode=.04_PSC Length=23.844045 Units=m
New Line.LINE1Cmpd_20 Bus1=11114 Bus2=11320 phases=3 Linecode=.04_PSC Length=14.84834 Units=m
New Line.LINE1Cmpd_21 Bus1=1425 Bus2=11068 phases=3 Linecode=.04_PSC Length=11.300024 Units=m
New Line.LINE1Cmpd_22 Bus1=193 Bus2=1216 phases=3 Linecode=.0225_PSC Length=24.02556 Units=m
New Line.LINE1Cmpd_23 Bus1=1827 Bus2=11296 phases=3 Linecode=.04_PSC Length=18.324491 Units=m
New Line.LINE1Cmpd_24 Bus1=11068 Bus2=11326 phases=3 Linecode=.04_PSC Length=15.09543 Units=m
New Line.LINE1Cmpd_25 Bus1=1957 Bus2=11300 phases=3 Linecode=.04_PSC Length=16.79491 Units=m
New Line.LINE1Cmpd_26 Bus1=180 Bus2=1199 phases=3 Linecode=.0225_PSC Length=22.278452 Units=m
New Line.LINE1Cmpd_27 Bus1=1219 Bus2=1931 phases=3 Linecode=.0225_PSC Length=24.895724 Units=m
New Line.LINE1Cmpd_28 Bus1=1364 Bus2=1710 phases=3 Linecode=.0225_PSC Length=13.661973 Units=m
New Line.LINE1Cmpd_29 Bus1=1443 Bus2=1936 phases=3 Linecode=.0225_PSC Length=15.786901 Units=m
New Line.LINE1Cmpd_30 Bus1=1941 Bus2=11267 phases=3 Linecode=.04_PSC Length=11.320335 Units=m
New Line.LINE1Cmpd_31 Bus1=11168 Bus2=11357 phases=3 Linecode=.04_PSC Length=17.04444 Units=m
New Line.LINE1Cmpd_32 Bus1=1656 Bus2=11000 phases=3 Linecode=.0225_PSC Length=12.520605 Units=m
New Line.LINE1Cmpd_33 Bus1=1827 Bus2=11242 phases=3 Linecode=.04_PSC Length=18.113488 Units=m
New Line.LINE1Cmpd_34 Bus1=1151 Bus2=1254 phases=3 Linecode=.0225_PSC Length=8.81054 Units=m
New Line.LINE1Cmpd_35 Bus1=11293 Bus2=11407 phases=3 Linecode=.04_PSC Length=14.28132 Units=m
New Line.LINE1Cmpd_36 Bus1=1535 Bus2=11114 phases=3 Linecode=.04_PSC Length=10.594048 Units=m
New Line.LINE1Cmpd_37 Bus1=11083 Bus2=11315 phases=3 Linecode=.0225_PSC Length=12.711038 Units=m
New Line.LINE1Cmpd_38 Bus1=1199 Bus2=1450 phases=3 Linecode=.0225_PSC Length=12.061278 Units=m
New Line.LINE1Cmpd_39 Bus1=1191 Bus2=1401 phases=3 Linecode=.0225_PSC Length=12.707701 Units=m
New Line.LINE1Cmpd_40 Bus1=1115 Bus2=1327 phases=3 Linecode=3c_185_SAC_ASN Length=12.08811 Units=m
New Line.LINE1Cmpd_41 Bus1=1802 Bus2=11298 phases=3 Linecode=.04_PSC Length=24.01968 Units=m
New Line.LINE1Cmpd_42 Bus1=180 Bus2=193 phases=3 Linecode=4c_300_SAC Length=45.6678 Units=m
New Line.LINE1Cmpd_43 Bus1=1193 Bus2=1364 phases=3 Linecode=.0225_PSC Length=17.51951 Units=m
New Line.LINE1Cmpd_44 Bus1=11077 Bus2=11308 phases=3 Linecode=.04_PSC Length=12.264343 Units=m
New Line.LINE1Cmpd_45 Bus1=1501 Bus2=1884 phases=3 Linecode=.04_PSC Length=12.79503 Units=m
New Line.LINE1Cmpd_46 Bus1=1795 Bus2=11097 phases=3 Linecode=.0225_PSC Length=10.487658 Units=m
New Line.LINE1Cmpd_47 Bus1=1468 Bus2=1819 phases=3 Linecode=.0225_PSC Length=10.876876 Units=m
New Line.LINE1Cmpd_48 Bus1=1543 Bus2=1775 phases=3 Linecode=.0225_PSC Length=8.01745 Units=m
New Line.LINE1Cmpd_49 Bus1=193 Bus2=1191 phases=3 Linecode=.0225_PSC Length=11.911701 Units=m
New Line.LINE1Cmpd_50 Bus1=1216 Bus2=1415 phases=3 Linecode=.0225_PSC Length=12.310759 Units=m
New Line.LINE1Cmpd_51 Bus1=11156 Bus2=11346 phases=3 Linecode=.04_PSC Length=12.67079 Units=m
New Line.LINE1Cmpd_52 Bus1=1535 Bus2=11168 phases=3 Linecode=.04_PSC Length=10.269334 Units=m
New Line.LINE1Cmpd_53 Bus1=1447 Bus2=1795 phases=3 Linecode=.0225_PSC Length=19.96114 Units=m
New Line.LINE1Cmpd_54 Bus1=1327 Bus2=1425 phases=3 Linecode=4c_120_SAC Length=19.63418 Units=m
New Line.LINE1Cmpd_55 Bus1=1936 Bus2=11327 phases=3 Linecode=.0225_PSC Length=15.67984 Units=m
New Line.LINE1Cmpd_56 Bus1=11298 Bus2=11391 phases=3 Linecode=.04_PSC Length=12.962932 Units=m
New Line.LINE1Cmpd_57 Bus1=180 Bus2=1110 phases=3 Linecode=.0225_PSC Length=8.02622 Units=m
New Line.LINE1Cmpd_58 Bus1=1562 Bus2=1918 phases=3 Linecode=.0225_PSC Length=11.731908 Units=m
New Line.LINE1Cmpd_59 Bus1=1110 Bus2=1315 phases=3 Linecode=.0225_PSC Length=12.688344 Units=m
New Line.LINE1Cmpd_60 Bus1=193 Bus2=1115 phases=3 Linecode=4c_300_SAC Length=3.40424 Units=m
New Line.LINE1Cmpd_61 Bus1=1397 Bus2=1562 phases=3 Linecode=.0225_PSC Length=8.07748 Units=m
New Line.LINE1Cmpd_62 Bus1=1151 Bus2=1170 phases=3 Linecode=4c_300_SAC Length=27.3058 Units=m
New Line.LINE1Cmpd_63 Bus1=1115 Bus2=1151 phases=3 Linecode=4c_300_SAC Length=23.53183 Units=m
New Line.LINE1Cmpd_64 Bus1=1447 Bus2=1493 phases=3 Linecode=4c_120_SAC Length=24.6193 Units=m
New Line.LINE1Cmpd_65 Bus1=1443 Bus2=1535 phases=3 Linecode=4c_120_SAC Length=28.0998 Units=m
New Line.LINE1Cmpd_66 Bus1=1412 Bus2=1447 phases=3 Linecode=4c_120_SAC Length=21.9159 Units=m
New Line.LINE1Cmpd_67 Bus1=1493 Bus2=1543 phases=3 Linecode=4c_120_SAC Length=11.7384 Units=m
New Line.LINE1Cmpd_68 Bus1=1170 Bus2=1193 phases=3 Linecode=4c_185_SAC Length=3.4465 Units=m
New Line.LINE1Cmpd_69 Bus1=1193 Bus2=1219 phases=3 Linecode=4c_185_SAC Length=25.0501 Units=m
New Line.LINE1Cmpd_70 Bus1=175 Bus2=180 phases=3 Linecode=4c_300_SAC Length=19.2816 Units=m
New Line.LINE293 Bus1=292 Bus2=294 phases=3 Linecode=4c_.2 Length=1.2181 Units=m
New Line.LINE2185 Bus1=2182 Bus2=2186 phases=3 Linecode=4c_.1 Length=2.6494 Units=m
New Line.LINE2195 Bus1=2189 Bus2=2196 phases=3 Linecode=2c_.0225 Length=0.88352 Units=m
New Line.LINE2339 Bus1=2332 Bus2=2340 phases=3 Linecode=4c_.1 Length=0.84246 Units=m
New Line.LINE2408 Bus1=2398 Bus2=2409 phases=3 Linecode=4c_.1 Length=0.96883 Units=m
New Line.LINE2561 Bus1=2550 Bus2=2562 phases=3 Linecode=4c_.1 Length=0.24965 Units=m
New Line.LINE2605 Bus1=2590 Bus2=2606 phases=3 Linecode=2c_.0225 Length=4.9432 Units=m
New Line.LINE2711 Bus1=2698 Bus2=2712 phases=3 Linecode=35_SAC_PSC Length=4.553 Units=m
New Line.LINE2842 Bus1=2835 Bus2=2843 phases=3 Linecode=2c_.0225 Length=2.3735 Units=m
New Line.LINE2897 Bus1=2891 Bus2=2898 phases=3 Linecode=2c_.0225 Length=3.011 Units=m
New Line.LINE2907 Bus1=2902 Bus2=2908 phases=3 Linecode=2c_.0225 Length=0.4842 Units=m
New Line.LINE2908 Bus1=2902 Bus2=2909 phases=3 Linecode=2c_.0225 Length=0.4842 Units=m
New Line.LINE2919 Bus1=2914 Bus2=2920 phases=3 Linecode=2c_.0225 Length=1.5746 Units=m
New Line.LINE2Cmpd_0 Bus1=2240 Bus2=2405 phases=3 Linecode=35_SAC_XC Length=21.13875 Units=m
New Line.LINE2Cmpd_1 Bus1=2550 Bus2=2891 phases=3 Linecode=35_SAC_PC Length=24.024411 Units=m
New Line.LINE2Cmpd_2 Bus1=2298 Bus2=2791 phases=3 Linecode=35_SAC_XSC Length=26.958232 Units=m
New Line.LINE2Cmpd_3 Bus1=2891 Bus2=2984 phases=3 Linecode=35_SAC_PC Length=9.889103 Units=m
New Line.LINE2Cmpd_4 Bus1=2554 Bus2=2975 phases=3 Linecode=2c_.0225 Length=22.670891 Units=m
New Line.LINE2Cmpd_5 Bus1=2186 Bus2=2398 phases=3 Linecode=4c_.1 Length=24.31577 Units=m
New Line.LINE2Cmpd_6 Bus1=2189 Bus2=2314 phases=3 Linecode=25_SAC_PC Length=13.386541 Units=m
New Line.LINE2Cmpd_7 Bus1=2444 Bus2=2698 phases=3 Linecode=35_SAC_PSC Length=8.948486 Units=m
New Line.LINE2Cmpd_8 Bus1=2280 Bus2=2514 phases=3 Linecode=35_SAC_XSC Length=24.166251 Units=m
New Line.LINE2Cmpd_9 Bus1=294 Bus2=2151 phases=3 Linecode=4c_.2 Length=17.08806 Units=m
New Line.LINE2Cmpd_10 Bus1=2213 Bus2=2550 phases=3 Linecode=4c_.1 Length=18.968626 Units=m
New Line.LINE2Cmpd_11 Bus1=2332 Bus2=2590 phases=3 Linecode=2c_.0225 Length=10.231621 Units=m
New Line.LINE2Cmpd_12 Bus1=2398 Bus2=2849 phases=3 Linecode=2c_.0225 Length=23.229518 Units=m
New Line.LINE2Cmpd_13 Bus1=2409 Bus2=2835 phases=3 Linecode=2c_.0225 Length=21.369594 Units=m
New Line.LINE2Cmpd_14 Bus1=2914 Bus2=2982 phases=3 Linecode=2c_.0225 Length=11.31229 Units=m
New Line.LINE2Cmpd_15 Bus1=2182 Bus2=2348 phases=3 Linecode=3c_.03_UA Length=2.176841 Units=m
New Line.LINE2Cmpd_16 Bus1=2562 Bus2=2990 phases=3 Linecode=2c_.0225 Length=30.015068 Units=m
New Line.LINE2Cmpd_17 Bus1=227 Bus2=292 phases=3 Linecode=4c_.2 Length=40.560877 Units=m
New Line.LINE2Cmpd_18 Bus1=227 Bus2=271 phases=3 Linecode=2c_.0225 Length=17.953091 Units=m
New Line.LINE2Cmpd_19 Bus1=2213 Bus2=2332 phases=3 Linecode=4c_.1 Length=18.08961 Units=m
New Line.LINE2Cmpd_20 Bus1=2340 Bus2=2444 phases=3 Linecode=3c_95_SAC_ASN Length=22.60096 Units=m
New Line.LINE2Cmpd_21 Bus1=2835 Bus2=2938 phases=3 Linecode=2c_.0225 Length=12.235976 Units=m
New Line.LINE2Cmpd_22 Bus1=2409 Bus2=2554 phases=3 Linecode=4c_.1 Length=27.21871 Units=m
New Line.LINE2Cmpd_23 Bus1=11 Bus2=227 phases=3 Linecode=4c_.2 Length=47.061625 Units=m
New Line.LINE2Cmpd_24 Bus1=2554 Bus2=2914 phases=3 Linecode=2c_.0225 Length=18.84934 Units=m
New Line.LINE2Cmpd_25 Bus1=2348 Bus2=2614 phases=3 Linecode=3c_.03_UA Length=17.62519 Units=m
New Line.LINE2Cmpd_26 Bus1=2698 Bus2=2780 phases=3 Linecode=35_SAC_PSC Length=9.5709 Units=m
New Line.LINE2Cmpd_27 Bus1=2498 Bus2=2902 phases=3 Linecode=2c_.0225 Length=22.964397 Units=m
New Line.LINE2Cmpd_28 Bus1=2348 Bus2=2747 phases=3 Linecode=3c_.03_UA Length=25.692133 Units=m
New Line.LINE2Cmpd_29 Bus1=2151 Bus2=2182 phases=3 Linecode=4c_.1 Length=19.6919 Units=m
New Line.LINE2Cmpd_30 Bus1=294 Bus2=2239 phases=3 Linecode=2c_.0225 Length=36.646265 Units=m
New Line.LINE2Cmpd_31 Bus1=2444 Bus2=2498 phases=3 Linecode=3c_95_SAC_ASN Length=19.04771 Units=m
New Line.LINE2Cmpd_32 Bus1=2590 Bus2=2762 phases=3 Linecode=2c_.0225 Length=12.332518 Units=m
New Line.LINE2Cmpd_33 Bus1=292 Bus2=2189 phases=3 Linecode=25_SAC_PC Length=33.696208 Units=m
New Line.LINE2Cmpd_34 Bus1=2151 Bus2=2213 phases=3 Linecode=4c_.1 Length=8.41525 Units=m
New Line.LINE2Cmpd_35 Bus1=2240 Bus2=2280 phases=3 Linecode=4c_.1 Length=15.806124 Units=m
New Line.LINE2Cmpd_36 Bus1=2186 Bus2=2240 phases=3 Linecode=4c_.1 Length=28.0847 Units=m
New Line.LINE2Cmpd_37 Bus1=2280 Bus2=2298 phases=3 Linecode=4c_.1 Length=8.8659 Units=m
New Line.LINE3122 Bus1=3120 Bus2=3123 phases=3 Linecode=4c_.1 Length=0.24947 Units=m
New Line.LINE3327 Bus1=3317 Bus2=3328 phases=3 Linecode=3c_.06_UA Length=2.0176 Units=m
New Line.LINE3339 Bus1=3329 Bus2=3340 phases=3 Linecode=3c_.06_UA Length=2.1857 Units=m
New Line.LINE3409 Bus1=3398 Bus2=3410 phases=3 Linecode=2c_.0225 Length=2.7156 Units=m
New Line.LINE3410 Bus1=3398 Bus2=3411 phases=3 Linecode=2c_.0225 Length=2.6449 Units=m
New Line.LINE3423 Bus1=3410 Bus2=3424 phases=3 Linecode=3c_.06_UA Length=1.1738 Units=m
New Line.LINE3425 Bus1=3411 Bus2=3426 phases=3 Linecode=3c_.06_UA Length=4.102 Units=m
New Line.LINE3437 Bus1=3422 Bus2=3438 phases=3 Linecode=4c_.1 Length=0.76883 Units=m
New Line.LINE3559 Bus1=3543 Bus2=3560 phases=3 Linecode=2c_.0225 Length=1.4188 Units=m
New Line.LINE3613 Bus1=3598 Bus2=3614 phases=3 Linecode=25_SAC_XC Length=3.6435 Units=m
New Line.LINE3614 Bus1=3599 Bus2=3615 phases=3 Linecode=3c_.06_UA Length=2.031 Units=m
New Line.LINE3630 Bus1=3615 Bus2=3631 phases=3 Linecode=3c_.06_UA Length=4.3919 Units=m
New Line.LINE3700 Bus1=3686 Bus2=3701 phases=3 Linecode=2c_.0225 Length=3.3946 Units=m
New Line.LINE3712 Bus1=3697 Bus2=3713 phases=3 Linecode=25_SAC_PC Length=2.5647 Units=m
New Line.LINE3721 Bus1=3706 Bus2=3722 phases=3 Linecode=2c_.0225 Length=4.2768 Units=m
New Line.LINE3737 Bus1=3723 Bus2=3738 phases=3 Linecode=2c_.0225 Length=4.955 Units=m
New Line.LINE3784 Bus1=3770 Bus2=3785 phases=3 Linecode=25_SAC_PC Length=2.1615 Units=m
New Line.LINE3807 Bus1=3793 Bus2=3808 phases=3 Linecode=2c_.0225 Length=1.7959 Units=m
New Line.LINE3924 Bus1=3913 Bus2=3925 phases=3 Linecode=2c_.0225 Length=1.9229 Units=m
New Line.LINE3990 Bus1=3982 Bus2=3991 phases=3 Linecode=2c_.0225 Length=3.6553 Units=m
New Line.LINE31054 Bus1=31048 Bus2=31055 phases=3 Linecode=3c_.06_UA Length=2.9923 Units=m
New Line.LINE31062 Bus1=31055 Bus2=31063 phases=3 Linecode=3c_.06_UA Length=6.0251 Units=m
New Line.LINE31069 Bus1=31061 Bus2=31070 phases=3 Linecode=3c_.06_UA Length=3.656 Units=m
New Line.LINE31085 Bus1=31079 Bus2=31086 phases=3 Linecode=2c_.0225 Length=4.532 Units=m
New Line.LINE31110 Bus1=31107 Bus2=31111 phases=3 Linecode=2c_.0225 Length=2.245 Units=m
New Line.LINE31187 Bus1=31183 Bus2=31188 phases=3 Linecode=3c_.06_UA Length=3.4053 Units=m
New Line.LINE31191 Bus1=31186 Bus2=31192 phases=3 Linecode=3c_.06_UA Length=2.3195 Units=m
New Line.LINE31427 Bus1=31424 Bus2=31428 phases=3 Linecode=2c_.0225 Length=1.0474 Units=m
New Line.LINE31455 Bus1=31453 Bus2=31456 phases=3 Linecode=2c_.0225 Length=1.1808 Units=m
New Line.LINE3Cmpd_0 Bus1=3315 Bus2=3543 phases=3 Linecode=2c_.0225 Length=8.1178 Units=m
New Line.LINE3Cmpd_1 Bus1=31107 Bus2=31209 phases=3 Linecode=2c_.0225 Length=10.409886 Units=m
New Line.LINE3Cmpd_2 Bus1=3315 Bus2=3686 phases=3 Linecode=25_SAC_PC Length=10.241992 Units=m
New Line.LINE3Cmpd_3 Bus1=11 Bus2=386 phases=3 Linecode=4c_.1 Length=113.548311 Units=m
New Line.LINE3Cmpd_4 Bus1=3366 Bus2=3697 phases=3 Linecode=25_SAC_PC Length=8.733475 Units=m
New Line.LINE3Cmpd_5 Bus1=3366 Bus2=3770 phases=3 Linecode=25_SAC_PC Length=7.552495 Units=m
New Line.LINE3Cmpd_6 Bus1=3411 Bus2=3950 phases=3 Linecode=2c_.0225 Length=14.481496 Units=m
New Line.LINE3Cmpd_7 Bus1=31183 Bus2=31350 phases=3 Linecode=2c_.0225 Length=13.786575 Units=m
New Line.LINE3Cmpd_8 Bus1=3811 Bus2=31048 phases=3 Linecode=3c_.06_UA Length=11.761448 Units=m
New Line.LINE3Cmpd_9 Bus1=3913 Bus2=31001 phases=3 Linecode=2c_.0225 Length=6.49259 Units=m
New Line.LINE3Cmpd_10 Bus1=3259 Bus2=3353 phases=3 Linecode=4c_.1 Length=20.14442 Units=m
New Line.LINE3Cmpd_11 Bus1=3438 Bus2=3501 phases=3 Linecode=4c_.1 Length=25.7398 Units=m
New Line.LINE3Cmpd_12 Bus1=3881 Bus2=31079 phases=3 Linecode=2c_.0225 Length=9.290095 Units=m
New Line.LINE3Cmpd_13 Bus1=3104 Bus2=3219 phases=3 Linecode=4c_.2 Length=48.972677 Units=m
New Line.LINE3Cmpd_14 Bus1=31242 Bus2=31453 phases=3 Linecode=2c_.0225 Length=21.527798 Units=m
New Line.LINE3Cmpd_15 Bus1=31103 Bus2=31129 phases=3 Linecode=4c_.06_UA Length=18.57185 Units=m
...
